7843
     RDKit          3D

 14 13  0  0  0  0  0  0  0  0999 V2000
   -0.5630    0.5160    0.0071 C   0  0  0  0  0  0  0  0  0  0  0  0
    0.5630   -0.5159    0.0071 C   0  0  0  0  0  0  0  0  0  0  0  0
   -1.9293   -0.1506   -0.0071 C   0  0  0  0  0  0  0  0  0  0  0  0
    0.5170   -1.3907   -1.2355 C   0  0  0  0  0  0  0  0  0  0  0  0
   -0.4724    1.1666   -0.8706 H   0  0  0  0  0  0  0  0  0  0  0  0
   -0.4825    1.1551    0.8940 H   0  0  0  0  0  0  0  0  0  0  0  0
    1.5334   -0.0084    0.0554 H   0  0  0  0  0  0  0  0  0  0  0  0
    0.4855   -1.1520    0.8965 H   0  0  0  0  0  0  0  0  0  0  0  0
   -2.0542   -0.7710   -0.9003 H   0  0  0  0  0  0  0  0  0  0  0  0
   -2.0651   -0.7856    0.8742 H   0  0  0  0  0  0  0  0  0  0  0  0
   -2.7203    0.6060   -0.0058 H   0  0  0  0  0  0  0  0  0  0  0  0
   -0.4289   -1.9386   -1.2949 H   0  0  0  0  0  0  0  0  0  0  0  0
    1.3319   -2.1211   -1.2152 H   0  0  0  0  0  0  0  0  0  0  0  0
    0.6232   -0.7882   -2.1433 H   0  0  0  0  0  0  0  0  0  0  0  0
  1  2  1  0
  1  3  1  0
  1  5  1  0
  1  6  1  0
  2  4  1  0
  2  7  1  0
  2  8  1  0
  3  9  1  0
  3 10  1  0
  3 11  1  0
  4 12  1  0
  4 13  1  0
  4 14  1  0
M  END
